/*--------------------------------*- C++ -*----------------------------------*\
| =========                 |                                                 |
| \\      /  F ield         | OpenFOAM: The Open Source CFD Toolbox           |
|  \\    /   O peration     | Version:  v2012                                 |
|   \\  /    A nd           | Website:  www.openfoam.com                      |
|    \\/     M anipulation  |                                                 |
\*---------------------------------------------------------------------------*/
FoamFile
{
    version     2.0;
    format      ascii;
    class       volScalarField;
    object      T;
}
// * * * * * * * * * * * * * * * * * * * * * * * * * * * * * * * * * * * * * //

dimensions      [1 0 -3 0 0 0 0];

internalField   uniform 0.005;

boundaryField
{
    inlet
    {
        type            fixedValue;
        value           uniform 0.005;
    }

    bottom.snow
    {
        //type        fixedGradient;
        //gradient    uniform 0.1;
        type          codedFixedValue;
        value         uniform 0;

        // Name of generated boundary condition
        name          erosionFlux;
    }

    
    "(top|roof|cubeX|cubeY)"
    {
        type        zeroGradient;
    }

    sides
    {
        type            slip;
    }

    outlet
    {
        type            inletOutlet;
        inletValue      $internalField;
        value           $internalField;
    }
}


// ************************************************************************* //
