/*--------------------------------*- C++ -*----------------------------------*\
| =========                 |                                                 |
| \\      /  F ield         | OpenFOAM: The Open Source CFD Toolbox           |
|  \\    /   O peration     | Version:  v2012                                 |
|   \\  /    A nd           | Website:  www.openfoam.com                      |
|    \\/     M anipulation  |                                                 |
\*---------------------------------------------------------------------------*/
FoamFile
{
    version     2.0;
    format      ascii;
    class       dictionary;
    object      fvSchemes;
}
// * * * * * * * * * * * * * * * * * * * * * * * * * * * * * * * * * * * * * //

ddtSchemes
{
    default             steadyState;
}

gradSchemes
{
    default             Gauss linear;

    limited             cellLimited Gauss linear 1;
    grad(U)             $limited;
    grad(k)             $limited;
    grad(epsilon)       $limited;
    grad(T)             $limited;
}

divSchemes
{
    default             none;

    div(phi,U)          bounded Gauss linearUpwind limited;

    turbulence          bounded Gauss limitedLinear 1;
    div(phi,epsilon)    $turbulence;
    div(phi,omega)      $turbulence;
    div(phi,k)          $turbulence;

    div(phiWf,T)        bounded Gauss linear;
    div(phi,T)          bounded Gauss linear;

    div((nuEff*dev2(T(grad(U)))))    Gauss linear;
}

laplacianSchemes
{
    default             Gauss linear uncorrected;
}

interpolationSchemes
{
    default             linear;
}

snGradSchemes
{
    default             uncorrected;
}

wallDist
{
    method              meshWave;
}


// ************************************************************************* //
